@<TRIPOS>MOLECULE
RET
 50 50 0 0 0
SMALL
GASTEIGER

@<TRIPOS>ATOM
      1 C1        -27.7950   50.5310  -29.9090 C.3   402  RET         -0.0099
      2 C2        -29.2440   50.5360  -29.3700 C.3   402  RET         -0.0436
      3 C3        -30.2480   49.6190  -30.0350 C.3   402  RET         -0.0486
      4 C4        -30.1330   49.6260  -31.5410 C.3   402  RET         -0.0314
      5 C5        -28.7300   49.5280  -32.0370 C.2   402  RET         -0.0689
      6 C6        -27.6670   49.8820  -31.2900 C.2   402  RET         -0.0427
      7 C7        -26.3120   49.8540  -31.8160 C.2   402  RET         -0.0579
      8 C8        -25.7180   48.7230  -32.3100 C.2   402  RET         -0.0586
      9 C9        -24.4040   48.5650  -32.8910 C.2   402  RET         -0.0504
     10 C10       -24.0860   47.3800  -33.4810 C.2   402  RET         -0.0588
     11 C11       -22.8610   47.0490  -34.1500 C.2   402  RET         -0.0613
     12 C12       -22.3590   45.8390  -34.5070 C.2   402  RET         -0.0591
     13 C13       -22.8240   44.4860  -34.2340 C.2   402  RET         -0.0546
     14 C14       -22.2530   43.4680  -34.9090 C.2   402  RET         -0.0842
     15 C15       -22.5160   42.1230  -34.7610 C.3   402  RET         -0.0463
     16 C16       -26.8680   49.8260  -28.9070 C.3   402  RET         -0.0558
     17 C17       -27.4110   52.0160  -29.9820 C.3   402  RET         -0.0558
     18 C18       -28.6640   49.1660  -33.4950 C.3   402  RET         -0.0432
     19 C19       -23.4510   49.7320  -32.8200 C.3   402  RET         -0.0397
     20 C20       -23.8350   44.2590  -33.1370 C.3   402  RET         -0.0400
     21 H         -29.6151   51.5354  -29.4617 H       1  RET         0.0274
     22 H         -29.1606   50.1641  -28.3702 H       1  RET         0.0274
     23 H         -31.2335   49.9367  -29.7651 H       1  RET         0.0269
     24 H         -30.0486   48.6227  -29.6995 H       1  RET         0.0269
     25 H         -30.5578   50.5370  -31.9077 H       1  RET         0.0310
     26 H         -30.6512   48.7604  -31.8976 H       1  RET         0.0310
     27 H         -25.7695   50.7319  -31.8172 H       1  RET         0.0621
     28 H         -26.2880   47.8641  -32.2605 H       1  RET         0.0620
     29 H         -24.8040   46.6397  -33.4428 H       1  RET         0.0620
     30 H         -22.2688   47.8567  -34.3988 H       1  RET         0.0618
     31 H         -21.4961   45.8863  -35.0711 H       1  RET         0.0620
     32 H         -21.5423   43.7234  -35.6124 H       1  RET         0.0572
     33 H         -23.2643   41.9866  -34.0085 H       1  RET         0.0272
     34 H         -21.6207   41.6144  -34.4700 H       1  RET         0.0272
     35 H         -22.8671   41.7239  -35.6896 H       1  RET         0.0272
     36 H         -27.1278   48.7896  -28.8489 H       1  RET         0.0238
     37 H         -26.9776   50.2758  -27.9423 H       1  RET         0.0238
     38 H         -25.8530   49.9216  -29.2319 H       1  RET         0.0238
     39 H         -28.0515   52.5162  -30.6780 H       1  RET         0.0238
     40 H         -26.3947   52.1062  -30.3042 H       1  RET         0.0238
     41 H         -27.5192   52.4604  -29.0147 H       1  RET         0.0238
     42 H         -29.6452   48.9253  -33.8475 H       1  RET         0.0275
     43 H         -28.0213   48.3203  -33.6238 H       1  RET         0.0275
     44 H         -28.2786   49.9949  -34.0512 H       1  RET         0.0275
     45 H         -23.9226   50.5472  -32.3122 H       1  RET         0.0278
     46 H         -23.1841   50.0354  -33.8108 H       1  RET         0.0278
     47 H         -22.5702   49.4412  -32.2866 H       1  RET         0.0278
     48 H         -24.1523   45.2021  -32.7437 H       1  RET         0.0277
     49 H         -23.3898   43.6785  -32.3562 H       1  RET         0.0277
     50 H         -24.6798   43.7354  -33.5333 H       1  RET         0.0277
@<TRIPOS>BOND
     1     1     2    1
     2     1     6    1
     3     1    16    1
     4     1    17    1
     5     2     3    1
     6     3     4    1
     7     4     5    1
     8     5     6    2
     9     5    18    1
    10     6     7    1
    11     7     8    2
    12     8     9    1
    13     9    10    2
    14     9    19    1
    15    10    11    1
    16    11    12    2
    17    12    13    1
    18    13    14    2
    19    13    20    1
    20    14    15    1
    21     2    21    1
    22     2    22    1
    23     3    23    1
    24     3    24    1
    25     4    25    1
    26     4    26    1
    27     7    27    1
    28     8    28    1
    29    10    29    1
    30    11    30    1
    31    12    31    1
    32    14    32    1
    33    15    33    1
    34    15    34    1
    35    15    35    1
    36    16    36    1
    37    16    37    1
    38    16    38    1
    39    17    39    1
    40    17    40    1
    41    17    41    1
    42    18    42    1
    43    18    43    1
    44    18    44    1
    45    19    45    1
    46    19    46    1
    47    19    47    1
    48    20    48    1
    49    20    49    1
    50    20    50    1
