@<TRIPOS>MOLECULE
RET
 50 50 0 0 0
SMALL
GASTEIGER

@<TRIPOS>ATOM
      1 C1         50.9830   43.6210   75.8350 C.3   349  RET        -0.0099
      2 C2         51.6360   43.1390   74.5180 C.3   349  RET        -0.0436
      3 C3         51.9220   44.1750   73.4520 C.3   349  RET        -0.0486
      4 C4         50.7870   45.1550   73.2740 C.3   349  RET        -0.0314
      5 C5         50.2340   45.6740   74.5580 C.2   349  RET        -0.0689
      6 C6         50.3640   45.0170   75.7260 C.2   349  RET        -0.0427
      7 C7         49.7530   45.5000   76.9540 C.2   349  RET        -0.0579
      8 C8         50.0200   46.7280   77.4980 C.2   349  RET        -0.0586
      9 C9         49.4600   47.3410   78.6800 C.2   349  RET        -0.0504
     10 C10        49.7410   48.6480   78.9380 C.2   349  RET        -0.0588
     11 C11        49.2440   49.4410   80.0250 C.2   349  RET        -0.0613
     12 C12        49.6800   50.6320   80.5100 C.2   349  RET        -0.0591
     13 C13        50.8460   51.4380   80.1740 C.2   349  RET        -0.0546
     14 C14        50.9090   52.6960   80.6540 C.2   349  RET        -0.0842
     15 C15        51.9420   53.5960   80.4920 C.3   349  RET        -0.0463
     16 C16        52.0150   43.5880   76.9720 C.3   349  RET        -0.0558
     17 C17        49.8930   42.5780   76.1230 C.3   349  RET        -0.0558
     18 C18        49.3830   46.8990   74.3590 C.3   349  RET        -0.0432
     19 C19        48.5820   46.4970   79.5700 C.3   349  RET        -0.0397
     20 C20        51.9820   50.8100   79.4070 C.3   349  RET        -0.0400
     21 H          50.9834   42.4089   74.0867 H     349  RET         0.0274
     22 H          52.6005   42.7801   74.8109 H     349  RET         0.0274
     23 H          52.0897   43.6726   72.5223 H     349  RET         0.0269
     24 H          52.7828   44.7296   73.7623 H     349  RET         0.0269
     25 H          49.9991   44.6656   72.7405 H     349  RET         0.0310
     26 H          51.1811   45.9954   72.7417 H     349  RET         0.0310
     27 H          49.0828   44.8848   77.4412 H     349  RET         0.0621
     28 H          50.7191   47.2947   76.9929 H     349  RET         0.0620
     29 H          50.3812   49.1194   78.2799 H     349  RET         0.0620
     30 H          48.4271   49.0442   80.5152 H     349  RET         0.0618
     31 H          49.0802   51.0372   81.2456 H     349  RET         0.0620
     32 H          50.0970   53.0209   81.2017 H     349  RET         0.0572
     33 H          52.7195   53.1457   79.9109 H     349  RET         0.0272
     34 H          52.3279   53.8724   81.4509 H     349  RET         0.0272
     35 H          51.5798   54.4679   79.9885 H     349  RET         0.0272
     36 H          52.7796   44.3117   76.7808 H     349  RET         0.0238
     37 H          52.4527   42.6132   77.0283 H     349  RET         0.0238
     38 H          51.5318   43.8160   77.8990 H     349  RET         0.0238
     39 H          49.1683   42.5929   75.3360 H     349  RET         0.0238
     40 H          49.4152   42.8087   77.0522 H     349  RET         0.0238
     41 H          50.3361   41.6058   76.1815 H     349  RET         0.0238
     42 H          49.4553   47.2221   73.3415 H     349  RET         0.0275
     43 H          49.7246   47.6796   75.0062 H     349  RET         0.0275
     44 H          48.3640   46.6664   74.5877 H     349  RET         0.0275
     45 H          48.5081   45.5094   79.1650 H     349  RET         0.0278
     46 H          47.6066   46.9334   79.6261 H     349  RET         0.0278
     47 H          49.0084   46.4496   80.5502 H     349  RET         0.0278
     48 H          51.7140   49.8132   79.1252 H     349  RET         0.0277
     49 H          52.8566   50.7836   80.0229 H     349  RET         0.0277
     50 H          52.1816   51.3875   78.5286 H     349  RET         0.0277
@<TRIPOS>BOND
     1     1     2    1
     2     1     6    1
     3     1    16    1
     4     1    17    1
     5     2     3    1
     6     2    21    1
     7     2    22    1
     8     3     4    1
     9     3    23    1
    10     3    24    1
    11     4     5    1
    12     4    25    1
    13     4    26    1
    14     5     6    2
    15     5    18    1
    16     6     7    1
    17     7     8    2
    18     7    27    1
    19     8     9    1
    20     8    28    1
    21     9    10    2
    22     9    19    1
    23    10    11    1
    24    10    29    1
    25    11    12    2
    26    11    30    1
    27    12    13    1
    28    12    31    1
    29    13    14    2
    30    13    20    1
    31    14    15    1
    32    14    32    1
    33    15    33    1
    34    15    34    1
    35    15    35    1
    36    16    36    1
    37    16    37    1
    38    16    38    1
    39    17    39    1
    40    17    40    1
    41    17    41    1
    42    18    42    1
    43    18    43    1
    44    18    44    1
    45    19    45    1
    46    19    46    1
    47    19    47    1
    48    20    48    1
    49    20    49    1
    50    20    50    1
