@<TRIPOS>MOLECULE
RET
 50 50 0 0 0
SMALL
GASTEIGER

@<TRIPOS>ATOM
      1 C1        -27.3390   51.1980  -29.3200 C.3   401  RET       -0.0099
      2 C2        -27.1740   51.2660  -27.7970 C.3   401  RET       -0.0436
      3 C3        -26.2130   52.3660  -27.3770 C.3   401  RET       -0.0486
      4 C4        -24.8370   52.1340  -27.9810 C.3   401  RET       -0.0314
      5 C5        -24.8520   51.6220  -29.3970 C.2   401  RET       -0.0689
      6 C6        -25.9690   51.1910  -30.0070 C.2   401  RET       -0.0427
      7 C7        -25.9840   50.6560  -31.3840 C.2   401  RET       -0.0579
      8 C8        -25.3150   49.5990  -31.8440 C.2   401  RET       -0.0586
      9 C9        -25.3480   49.0540  -33.1860 C.2   401  RET       -0.0504
     10 C10       -24.6720   47.9150  -33.4520 C.2   401  RET       -0.0591
     11 C11       -24.7780   47.1310  -34.6210 C.2   401  RET       -0.0649
     12 C12       -24.1100   46.0230  -34.8560 C.2   401  RET       -0.0770
     13 C13       -24.2600   45.2110  -36.0200 C.3   401  RET       -0.0019
     14 C14       -23.6760   43.9860  -35.9320 C.3   401  RET       -0.0308
     15 C15       -23.6500   42.7100  -36.4600 C.3   401  RET       -0.0613
     16 C16       -28.1300   49.9380  -29.6900 C.3   401  RET       -0.0558
     17 C17       -28.1500   52.4210  -29.7580 C.3   401  RET       -0.0558
     18 C18       -23.4920   51.6510  -30.0400 C.3   401  RET       -0.0432
     19 C19       -26.2450   49.7150  -34.1950 C.3   401  RET       -0.0397
     20 C20       -25.2020   45.6090  -37.0930 C.3   401  RET       -0.0550
     21 H         -26.7980   50.3270  -27.4480 H       1  RET        0.0274
     22 H         -28.1310   51.4820  -27.3700 H       1  RET        0.0274
     23 H         -26.5900   53.3090  -27.7130 H       1  RET        0.0269
     24 H         -26.1270   52.3600  -26.3100 H       1  RET        0.0269
     25 H         -24.3060   53.0630  -27.9680 H       1  RET        0.0310
     26 H         -24.3700   51.3750  -27.3890 H       1  RET        0.0310
     27 H         -26.5780   51.1560  -32.0640 H       1  RET        0.0621
     28 H         -24.7050   49.1140  -31.1680 H       1  RET        0.0620
     29 H         -24.0130   47.5860  -32.7290 H       1  RET        0.0620
     30 H         -25.4330   47.4540  -35.3500 H       1  RET        0.0615
     31 H         -23.4260   45.7180  -34.1460 H       1  RET        0.0578
     32 H         -22.9780   44.0250  -35.1730 H       1  RET        0.0309
     33 H         -24.3650   42.6370  -37.2530 H       1  RET        0.0233
     34 H         -23.8920   42.0020  -35.6950 H       1  RET        0.0233
     35 H         -22.6720   42.5020  -36.8420 H       1  RET        0.0233
     36 H         -28.2460   49.8890  -30.7530 H       1  RET        0.0238
     37 H         -29.0940   49.9730  -29.2270 H       1  RET        0.0238
     38 H         -27.6020   49.0720  -29.3490 H       1  RET        0.0238
     39 H         -28.2810   52.4000  -30.8200 H       1  RET        0.0238
     40 H         -27.6280   53.3130  -29.4810 H       1  RET        0.0238
     41 H         -29.1070   52.4040  -29.2800 H       1  RET        0.0238
     42 H         -23.5620   51.2780  -31.0400 H       1  RET        0.0275
     43 H         -22.8180   51.0390  -29.4780 H       1  RET        0.0275
     44 H         -23.1280   52.6570  -30.0590 H       1  RET        0.0275
     45 H         -26.1630   49.2060  -35.1330 H       1  RET        0.0278
     46 H         -25.9520   50.7370  -34.3170 H       1  RET        0.0278
     47 H         -27.2580   49.6730  -33.8530 H       1  RET        0.0278
     48 H         -25.1770   44.8820  -37.8770 H       1  RET        0.0238
     49 H         -24.9160   46.5640  -37.4820 H       1  RET        0.0238
     50 H         -26.1930   45.6690  -36.6940 H       1  RET        0.0238
@<TRIPOS>BOND
     1     1     6    1
     2     1    17    1
     3     1    16    1
     4     1     2    1
     5     2     3    1
     6     2    21    1
     7     2    22    1
     8     3     4    1
     9     3    23    1
    10     3    24    1
    11     4     5    1
    12     4    25    1
    13     4    26    1
    14     5    18    1
    15     5     6    2
    16     6     7    1
    17     7     8    2
    18     7    27    1
    19     8     9    1
    20     8    28    1
    21     9    19    1
    22     9    10    2
    23    10    11    1
    24    10    29    1
    25    11    12    2
    26    11    30    1
    27    12    13    1
    28    12    31    1
    29    13    20    1
    30    13    14    1
    31    14    15    1
    32    14    32    1
    33    15    33    1
    34    15    34    1
    35    15    35    1
    36    16    36    1
    37    16    37    1
    38    16    38    1
    39    17    39    1
    40    17    40    1
    41    17    41    1
    42    18    42    1
    43    18    43    1
    44    18    44    1
    45    19    45    1
    46    19    46    1
    47    19    47    1
    48    20    48    1
    49    20    49    1
    50    20    50    1
